1
9
.tran 10u 300m 80m
2
1
MODDED
V
1
VR
V
